LAMMPS (29 Sep 2021 - Update 2)
variable rand equal round(random(0,1e7,452345))

units		real
atom_style      full
boundary        f f f
timestep	1.0

# modified CLAYFF parameters from Kerisit (2011)
pair_style      lj/cut/coul/cut 45.0
neigh_modify one 10000
comm_style tiled

read_data       cub_np_re.data
Reading data file ...
  orthogonal box = (-2.2200010 -2.2200010 -2.2200010) to (99.540001 99.540001 99.540001)
  reading atoms ...
  1466 atoms
  reading velocities ...
  1466 velocities
Finding 1-2 1-3 1-4 neighbors ...
     0 = max # of 1-2 neighbors
     0 = max # of 1-3 neighbors
     0 = max # of 1-4 neighbors
     1 = max # of special neighbors
balance 1.1 rcb
Balancing ...
  update every 1 steps, delay 10 steps, check yes
 rebalancing time: 0.004 seconds
  iteration count = 0
  initial/final maximal load/proc = 309.00000 37.000000
  initial/final imbalance factor  = 8.4311050 1.0095498

dump  dmp all custom 10000 swap.lammpstrj id mol type q x y z
dump_modify dmp sort id

group  fe type 1 2
602 atoms in group fe
variable nfe equal count(fe)
variable nsteps equal round(602*602)

compute  coord fe coord/atom cutoff 2.0
dump coord  fe custom 1 cub_swp.coord id type c_coord
dump_modify  coord sort id
run  0
  update every 1 steps, delay 10 steps, check yes
Step Temp E_pair E_mol TotEng Press
0            0   -285846.39            0   -285846.39   -1957.2947
Loop time of 5.24809e-05 on 40 procs for 0 steps with 1466 atoms

variable  fet atom c_coord==4
group  fet variable fet
182 atoms in group fet
group  feo subtract fe fet
420 atoms in group feo
undump  coord

set  group all mol 0
Setting atom values ...
  1466 settings made for mol
set  group fet mol 1
Setting atom values ...
  182 settings made for mol
set  group feo mol 2
Setting atom values ...
  420 settings made for mol

variable  fet3 atom "gmask(fet) && q == 1.575"
group  fet3 dynamic fe var fet3 every 100
dynamic group fet3 defined
variable  rfet3 equal count(fet3)/count(fet)

variable  feo3 atom "gmask(feo) && q == 1.575"
group  feo3 dynamic fe var feo3 every 100
dynamic group feo3 defined
variable  rfeo3 equal count(feo3)/count(feo)

# Electrostatic relaxation-long
fix  swp fe atom/swap 1 1 855824 0.1 ke no types 1 2
thermo  1000
thermo_style custom step pe f_swp[1] f_swp[2] v_rfet3 v_rfeo3
run  362404
Step PotEng f_swp[1] f_swp[2] v_rfet3 v_rfeo3
0   -285846.39            0            0   0.87362637   0.86904762
Averages over the last 182 of 364 rows, steps 182000 to 362404:
PotEng f_swp[1] f_swp[2] v_rfet3 v_rfeo3
-290158 272497 218 0.983516 0.821429
Loop time of 2415.61 on 40 procs for 362404 steps with 1466 atoms

unfix swp

thermo_style custom step temp pe
write_data cub_re_swp.data
System init for write_data ...

# Full minimization
minimize        1.0e-6 1.0e-9 1000 10000
Step Temp PotEng
362404            0   -290158.22
Loop time of 0.0927113 on 40 procs for 28 steps with 1466 atoms

Minimization stats:
  Stopping criterion = energy tolerance
  Energy initial, next-to-last, final =
  Force two-norm initial, final = 2050.5417 12.563406
  Force max component initial, final = 78.745483 2.4113875
  Final line search alpha, max atom move = 0.061069025 0.14726108
  Iterations, force evaluations = 28 55

write_data cub_re_min.data
System init for write_data ...
