LAMMPS (17 Feb 2022)
variable rand equal round(random(0,1e7,452345))
variable temp index 1000 999 998 997 996 995 994 993 992 991 990 989 988 987 986 985 984 983 982 981 980 979 978 977 976 975 974 973 972 971 970 969 968 967 966 965 964 963 962 961 960 959 958 957 956 955 954 953 952 951 950 949 948 947 946 945 944 943 942 941 940 939 938 937 936 935 934 933 932 931 930 929 928 927 926 925 924 923 922 921 920 919 918 917 916 915 914 913 912 911 910 909 908 907 906 905 904 903 902 901 900 899 898 897 896 895 894 893 892 891 890 889 888 887 886 885 884 883 882 881 880 879 878 877 876 875 874 873 872 871 870 869 868 867 866 865 864 863 862 861 860 859 858 857 856 855 854 853 852 851 850 849 848 847 846 845 844 843 842 841 840 839 838 837 836 835 834 833 832 831 830 829 828 827 826 825 824 823 822 821 820 819 818 817 816 815 814 813 812 811 810 809 808 807 806 805 804 803 802 801 800 799 798 797 796 795 794 793 792 791 790 789 788 787 786 785 784 783 782 781 780 779 778 777 776 775 774 773 772 771 770 769 768 767 766 765 764 763 762 761 760 759 758 757 756 755 754 753 752 751 750 749 748 747 746 745 744 743 742 741 740 739 738 737 736 735 734 733 732 731 730 729 728 727 726 725 724 723 722 721 720 719 718 717 716 715 714 713 712 711 710 709 708 707 706 705 704 703 702 701 700 699 698 697 696 695 694 693 692 691 690 689 688 687 686 685 684 683 682 681 680 679 678 677 676 675 674 673 672 671 670 669 668 667 666 665 664 663 662 661 660 659 658 657 656 655 654 653 652 651 650 649 648 647 646 645 644 643 642 641 640 639 638 637 636 635 634 633 632 631 630 629 628 627 626 625 624 623 622 621 620 619 618 617 616 615 614 613 612 611 610 609 608 607 606 605 604 603 602 601 600 599 598 597 596 595 594 593 592 591 590 589 588 587 586 585 584 583 582 581 580 579 578 577 576 575 574 573 572 571 570 569 568 567 566 565 564 563 562 561 560 559 558 557 556 555 554 553 552 551 550 549 548 547 546 545 544 543 542 541 540 539 538 537 536 535 534 533 532 531 530 529 528 527 526 525 524 523 522 521 520 519 518 517 516 515 514 513 512 511 510 509 508 507 506 505 504 503 502 501 500 499 498 497 496 495 494 493 492 491 490 489 488 487 486 485 484 483 482 481 480 479 478 477 476 475 474 473 472 471 470 469 468 467 466 465 464 463 462 461 460 459 458 457 456 455 454 453 452 451 450 449 448 447 446 445 444 443 442 441 440 439 438 437 436 435 434 433 432 431 430 429 428 427 426 425 424 423 422 421 420 419 418 417 416 415 414 413 412 411 410 409 408 407 406 405 404 403 402 401 400 399 398 397 396 395 394 393 392 391 390 389 388 387 386 385 384 383 382 381 380 379 378 377 376 375 374 373 372 371 370 369 368 367 366 365 364 363 362 361 360 359 358 357 356 355 354 353 352 351 350 349 348 347 346 345 344 343 342 341 340 339 338 337 336 335 334 333 332 331 330 329 328 327 326 325 324 323 322 321 320 319 318 317 316 315 314 313 312 311 310 309 308 307 306 305 304 303 302 301 300 299 298 297 296 295 294 293 292 291 290 289 288 287 286 285 284 283 282 281 280 279 278 277 276 275 274 273 272 271 270 269 268 267 266 265 264 263 262 261 260 259 258 257 256 255 254 253 252 251 250 249 248 247 246 245 244 243 242 241 240 239 238 237 236 235 234 233 232 231 230 229 228 227 226 225 224 223 222 221 220 219 218 217 216 215 214 213 212 211 210 209 208 207 206 205 204 203 202 201 200 199 198 197 196 195 194 193 192 191 190 189 188 187 186 185 184 183 182 181 180 179 178 177 176 175 174 173 172 171 170 169 168 167 166 165 164 163 162 161 160 159 158 157 156 155 154 153 152 151 150 149 148 147 146 145 144 143 142 141 140 139 138 137 136 135 134 133 132 131 130 129 128 127 126 125 124 123 122 121 120 119 118 117 116 115 114 113 112 111 110 109 108 107 106 105 104 103 102 101 100 99 98 97 96 95 94 93 92 91 90 89 88 87 86 85 84 83 82 81 80 79 78 77 76 75 74 73 72 71 70 69 68 67 66 65 64 63 62 61 60 59 58 57 56 55 54 53 52 51 50 49 48 47 46 45 44 43 42 41 40 39 38 37 36 35 34 33 32 31 30 29 28 27 26 25 24 23 22 21 20 19 18 17 16 15 14 13 12 11 10 9 8 7 6 5 4 3 2 1

units           real
atom_style      full
boundary        f f f
timestep	1.0

# modified CLAYFF parameters from Kerisit (2011)
pair_style      lj/cut/coul/cut 35.0
neigh_modify one 10000
comm_style tiled

read_data       cub_np_un.data
Reading data file ...
  orthogonal box = (-2.220001 -2.220001 -2.220001) to (99.540001 99.540001 99.540001)
  reading atoms ...
  1466 atoms
  reading velocities ...
  1466 velocities
Finding 1-2 1-3 1-4 neighbors ...
     0 = max # of 1-2 neighbors
     0 = max # of 1-3 neighbors
     0 = max # of 1-4 neighbors
     1 = max # of special neighbors
balance 1.1 rcb
Balancing ...
  generated 3 of 3 mixed pair_coeff terms from geometric mixing rule
  update every 1 steps, delay 10 steps, check yes

dump  dmp all custom 10000 swap.lammpstrj id mol type q x y z
dump_modify dmp sort id

group  fe type 1 2
602 atoms in group fe
variable nfe equal count(fe)
variable nsteps equal round((602*602)/100)
#variable nsteps equal 5000

compute  coord fe coord/atom cutoff 2.0
dump coord  fe custom 1 cub_swp.coord id type c_coord
dump_modify  coord sort id
run  0
  generated 3 of 3 mixed pair_coeff terms from geometric mixing rule
  update every 1 steps, delay 10 steps, check yes
Step Temp E_pair E_mol TotEng Press
0            0   -282934.92            0   -282934.92   -2008.5954
Loop time of 1.87254e-05 on 8 procs for 0 steps with 1466 atoms

variable  fet atom c_coord==4
group  fet variable fet
170 atoms in group fet
group  feo subtract fe fet
432 atoms in group feo
undump  coord

set  group all mol 0
Setting atom values ...
  1466 settings made for mol
set  group fet mol 1
Setting atom values ...
  170 settings made for mol
set  group feo mol 2
Setting atom values ...
  432 settings made for mol

variable  fet3 atom "gmask(fet) && q == 1.575"
group  fet3 dynamic fe var fet3 every 100
dynamic group fet3 defined
variable  rfet3 equal count(fet3)/count(fet)

variable  feo3 atom "gmask(feo) && q == 1.575"
group  feo3 dynamic fe var feo3 every 100
dynamic group feo3 defined
variable  rfeo3 equal count(feo3)/count(feo)

#variable cnum equal 104  # Number of SA cycles

label temp_loop

  variable ftemp equal v_temp

  # Electrostatic relaxation-long
  fix  swp fe atom/swap 1 1 855824 1000 ke no types 1 2
  thermo  1000
  thermo_style custom step  pe f_swp[1] f_swp[2] v_rfet3 v_rfeo3
  run  3624
  generated 3 of 3 mixed pair_coeff terms from geometric mixing rule
Step PotEng f_swp[1] f_swp[2] v_rfet3 v_rfeo3
0   -282934.92            0            0   0.87647059   0.86805556
Loop time of 50.776 on 8 procs for 3624 steps with 1466 atoms

  unfix swp

next temp
jump SELF temp_loop

  variable ftemp equal v_temp

  # Electrostatic relaxation-long
  fix  swp fe atom/swap 1 1 710414 999 ke no types 1 2
  thermo  1000
  thermo_style custom step  pe f_swp[1] f_swp[2] v_rfet3 v_rfeo3
  run  3624
  generated 3 of 3 mixed pair_coeff terms from geometric mixing rule
Step PotEng f_swp[1] f_swp[2] v_rfet3 v_rfeo3
3624   -287097.17            0            0   0.98823529   0.82407407
Loop time of 48.7248 on 8 procs for 3624 steps with 1466 atoms

  unfix swp

next temp
jump SELF temp_loop

  variable ftemp equal v_temp

  # Electrostatic relaxation-long
  fix  swp fe atom/swap 1 1 755762 998 ke no types 1 2
  thermo  1000
  thermo_style custom step  pe f_swp[1] f_swp[2] v_rfet3 v_rfeo3
  run  3624
  generated 3 of 3 mixed pair_coeff terms from geometric mixing rule
Step PotEng f_swp[1] f_swp[2] v_rfet3 v_rfeo3
7248   -287153.14            0            0   0.98823529   0.82407407
Loop time of 48.1615 on 8 procs for 3624 steps with 1466 atoms

  unfix swp

next temp
jump SELF temp_loop

  variable ftemp equal v_temp

  # Electrostatic relaxation-long
  fix  swp fe atom/swap 1 1 4574249 997 ke no types 1 2
  thermo  1000
  thermo_style custom step  pe f_swp[1] f_swp[2] v_rfet3 v_rfeo3
  run  3624
  generated 3 of 3 mixed pair_coeff terms from geometric mixing rule
Step PotEng f_swp[1] f_swp[2] v_rfet3 v_rfeo3
10872   -287193.43            0            0   0.99411765   0.82175926
Loop time of 50.6903 on 8 procs for 3624 steps with 1466 atoms

  unfix swp

next temp
jump SELF temp_loop

  variable ftemp equal v_temp

  # Electrostatic relaxation-long
  fix  swp fe atom/swap 1 1 5979850 996 ke no types 1 2
  thermo  1000
  thermo_style custom step  pe f_swp[1] f_swp[2] v_rfet3 v_rfeo3
  run  3624
  generated 3 of 3 mixed pair_coeff terms from geometric mixing rule
Step PotEng f_swp[1] f_swp[2] v_rfet3 v_rfeo3
14496   -287184.15            0            0   0.99411765   0.82175926
Loop time of 54.7532 on 8 procs for 3624 steps with 1466 atoms

  unfix swp

next temp
jump SELF temp_loop

  variable ftemp equal v_temp

  # Electrostatic relaxation-long
  fix  swp fe atom/swap 1 1 2707118 995 ke no types 1 2
  thermo  1000
  thermo_style custom step  pe f_swp[1] f_swp[2] v_rfet3 v_rfeo3
  run  3624
  generated 3 of 3 mixed pair_coeff terms from geometric mixing rule
Step PotEng f_swp[1] f_swp[2] v_rfet3 v_rfeo3
18120   -287218.88            0            0   0.99411765   0.82175926
Loop time of 49.4232 on 8 procs for 3624 steps with 1466 atoms

  unfix swp

next temp
jump SELF temp_loop

  variable ftemp equal v_temp

  # Electrostatic relaxation-long
  fix  swp fe atom/swap 1 1 1165944 994 ke no types 1 2
  thermo  1000
  thermo_style custom step  pe f_swp[1] f_swp[2] v_rfet3 v_rfeo3
  run  3624
  generated 3 of 3 mixed pair_coeff terms from geometric mixing rule
Step PotEng f_swp[1] f_swp[2] v_rfet3 v_rfeo3
21744   -287210.73            0            0   0.99411765   0.82175926
Loop time of 47.625 on 8 procs for 3624 steps with 1466 atoms

  unfix swp

next temp
jump SELF temp_loop

  variable ftemp equal v_temp

  # Electrostatic relaxation-long
  fix  swp fe atom/swap 1 1 3631288 993 ke no types 1 2
  thermo  1000
  thermo_style custom step  pe f_swp[1] f_swp[2] v_rfet3 v_rfeo3
  run  3624
  generated 3 of 3 mixed pair_coeff terms from geometric mixing rule
Step PotEng f_swp[1] f_swp[2] v_rfet3 v_rfeo3
25368   -287205.61            0            0   0.99411765   0.82175926
Loop time of 53.5806 on 8 procs for 3624 steps with 1466 atoms

  unfix swp

next temp
jump SELF temp_loop

  variable ftemp equal v_temp

  # Electrostatic relaxation-long
  fix  swp fe atom/swap 1 1 7952271 992 ke no types 1 2
  thermo  1000
  thermo_style custom step  pe f_swp[1] f_swp[2] v_rfet3 v_rfeo3
  run  3624
  generated 3 of 3 mixed pair_coeff terms from geometric mixing rule
Step PotEng f_swp[1] f_swp[2] v_rfet3 v_rfeo3
28992   -287198.73            0            0            1   0.81944444
Loop time of 51.1395 on 8 procs for 3624 steps with 1466 atoms

  unfix swp

next temp
jump SELF temp_loop

  variable ftemp equal v_temp

  # Electrostatic relaxation-long
  fix  swp fe atom/swap 1 1 185888 991 ke no types 1 2
  thermo  1000
  thermo_style custom step  pe f_swp[1] f_swp[2] v_rfet3 v_rfeo3
  run  3624
  generated 3 of 3 mixed pair_coeff terms from geometric mixing rule
Step PotEng f_swp[1] f_swp[2] v_rfet3 v_rfeo3
32616   -287185.12            0            0            1   0.81944444
Loop time of 48.5287 on 8 procs for 3624 steps with 1466 atoms

  unfix swp

next temp
jump SELF temp_loop

  variable ftemp equal v_temp

  # Electrostatic relaxation-long
  fix  swp fe atom/swap 1 1 7935996 990 ke no types 1 2
  thermo  1000
  thermo_style custom step  pe f_swp[1] f_swp[2] v_rfet3 v_rfeo3
  run  3624
  generated 3 of 3 mixed pair_coeff terms from geometric mixing rule
Step PotEng f_swp[1] f_swp[2] v_rfet3 v_rfeo3
36240   -287190.37            0            0   0.99411765   0.82175926
Loop time of 47.4012 on 8 procs for 3624 steps with 1466 atoms

  unfix swp

next temp
jump SELF temp_loop

  variable ftemp equal v_temp

  # Electrostatic relaxation-long
  fix  swp fe atom/swap 1 1 473855 989 ke no types 1 2
  thermo  1000
  thermo_style custom step  pe f_swp[1] f_swp[2] v_rfet3 v_rfeo3
  run  3624
  generated 3 of 3 mixed pair_coeff terms from geometric mixing rule
Step PotEng f_swp[1] f_swp[2] v_rfet3 v_rfeo3
39864   -287192.19            0            0   0.99411765   0.82175926
Loop time of 51.2787 on 8 procs for 3624 steps with 1466 atoms

  unfix swp

next temp
jump SELF temp_loop

  variable ftemp equal v_temp

  # Electrostatic relaxation-long
  fix  swp fe atom/swap 1 1 7716369 988 ke no types 1 2
  thermo  1000
  thermo_style custom step  pe f_swp[1] f_swp[2] v_rfet3 v_rfeo3
  run  3624
  generated 3 of 3 mixed pair_coeff terms from geometric mixing rule
Step PotEng f_swp[1] f_swp[2] v_rfet3 v_rfeo3
43488   -287157.14            0            0            1   0.81944444
Loop time of 47.4365 on 8 procs for 3624 steps with 1466 atoms

  unfix swp

next temp
jump SELF temp_loop

  variable ftemp equal v_temp

  # Electrostatic relaxation-long
  fix  swp fe atom/swap 1 1 8487327 987 ke no types 1 2
  thermo  1000
  thermo_style custom step  pe f_swp[1] f_swp[2] v_rfet3 v_rfeo3
  run  3624
  generated 3 of 3 mixed pair_coeff terms from geometric mixing rule
Step PotEng f_swp[1] f_swp[2] v_rfet3 v_rfeo3
47112   -287196.72            0            0            1   0.81944444
Loop time of 48.1266 on 8 procs for 3624 steps with 1466 atoms

  unfix swp

next temp
jump SELF temp_loop

  variable ftemp equal v_temp

  # Electrostatic relaxation-long
  fix  swp fe atom/swap 1 1 8505477 986 ke no types 1 2
  thermo  1000
  thermo_style custom step  pe f_swp[1] f_swp[2] v_rfet3 v_rfeo3
  run  3624
  generated 3 of 3 mixed pair_coeff terms from geometric mixing rule
Step PotEng f_swp[1] f_swp[2] v_rfet3 v_rfeo3
50736   -287206.35            0            0            1   0.81944444
Loop time of 47.1945 on 8 procs for 3624 steps with 1466 atoms

  unfix swp

next temp
jump SELF temp_loop

  variable ftemp equal v_temp

  # Electrostatic relaxation-long
  fix  swp fe atom/swap 1 1 980195 985 ke no types 1 2
  thermo  1000
  thermo_style custom step  pe f_swp[1] f_swp[2] v_rfet3 v_rfeo3
  run  3624
  generated 3 of 3 mixed pair_coeff terms from geometric mixing rule
Step PotEng f_swp[1] f_swp[2] v_rfet3 v_rfeo3
54360   -287211.25            0            0            1   0.81944444
Loop time of 47.4862 on 8 procs for 3624 steps with 1466 atoms

  unfix swp

next temp
jump SELF temp_loop

  variable ftemp equal v_temp

  # Electrostatic relaxation-long
  fix  swp fe atom/swap 1 1 2065900 984 ke no types 1 2
  thermo  1000
  thermo_style custom step  pe f_swp[1] f_swp[2] v_rfet3 v_rfeo3
  run  3624
  generated 3 of 3 mixed pair_coeff terms from geometric mixing rule
Step PotEng f_swp[1] f_swp[2] v_rfet3 v_rfeo3
57984   -287218.54            0            0            1   0.81944444
Loop time of 46.3298 on 8 procs for 3624 steps with 1466 atoms

  unfix swp

next temp
jump SELF temp_loop

  variable ftemp equal v_temp

  # Electrostatic relaxation-long
  fix  swp fe atom/swap 1 1 5185835 983 ke no types 1 2
  thermo  1000
  thermo_style custom step  pe f_swp[1] f_swp[2] v_rfet3 v_rfeo3
  run  3624
  generated 3 of 3 mixed pair_coeff terms from geometric mixing rule
Step PotEng f_swp[1] f_swp[2] v_rfet3 v_rfeo3
61608   -287207.43            0            0            1   0.81944444
Loop time of 46.006 on 8 procs for 3624 steps with 1466 atoms

  unfix swp

next temp
jump SELF temp_loop

  variable ftemp equal v_temp

  # Electrostatic relaxation-long
  fix  swp fe atom/swap 1 1 3359353 982 ke no types 1 2
  thermo  1000
  thermo_style custom step  pe f_swp[1] f_swp[2] v_rfet3 v_rfeo3
  run  3624
  generated 3 of 3 mixed pair_coeff terms from geometric mixing rule
Step PotEng f_swp[1] f_swp[2] v_rfet3 v_rfeo3
65232   -287201.71            0            0            1   0.81944444
Loop time of 46.1179 on 8 procs for 3624 steps with 1466 atoms

  unfix swp

next temp
jump SELF temp_loop

  variable ftemp equal v_temp

  # Electrostatic relaxation-long
  fix  swp fe atom/swap 1 1 6806545 981 ke no types 1 2
  thermo  1000
  thermo_style custom step  pe f_swp[1] f_swp[2] v_rfet3 v_rfeo3
  run  3624
  generated 3 of 3 mixed pair_coeff terms from geometric mixing rule
Step PotEng f_swp[1] f_swp[2] v_rfet3 v_rfeo3
68856   -287201.02            0            0   0.99411765   0.82175926
Loop time of 46.0485 on 8 procs for 3624 steps with 1466 atoms

  unfix swp

next temp
jump SELF temp_loop

  variable ftemp equal v_temp

  # Electrostatic relaxation-long
  fix  swp fe atom/swap 1 1 594805 980 ke no types 1 2
  thermo  1000
  thermo_style custom step  pe f_swp[1] f_swp[2] v_rfet3 v_rfeo3
  run  3624
  generated 3 of 3 mixed pair_coeff terms from geometric mixing rule
Step PotEng f_swp[1] f_swp[2] v_rfet3 v_rfeo3
72480   -287210.15            0            0   0.99411765   0.82175926
Loop time of 46.4076 on 8 procs for 3624 steps with 1466 atoms

  unfix swp

next temp
jump SELF temp_loop

  variable ftemp equal v_temp

  # Electrostatic relaxation-long
  fix  swp fe atom/swap 1 1 3129163 979 ke no types 1 2
  thermo  1000
  thermo_style custom step  pe f_swp[1] f_swp[2] v_rfet3 v_rfeo3
  run  3624
  generated 3 of 3 mixed pair_coeff terms from geometric mixing rule
Step PotEng f_swp[1] f_swp[2] v_rfet3 v_rfeo3
76104   -287210.95            0            0            1   0.81944444
Loop time of 46.0131 on 8 procs for 3624 steps with 1466 atoms

  unfix swp

next temp
jump SELF temp_loop

  variable ftemp equal v_temp

  # Electrostatic relaxation-long
  fix  swp fe atom/swap 1 1 8397505 978 ke no types 1 2
  thermo  1000
  thermo_style custom step  pe f_swp[1] f_swp[2] v_rfet3 v_rfeo3
  run  3624
  generated 3 of 3 mixed pair_coeff terms from geometric mixing rule
Step PotEng f_swp[1] f_swp[2] v_rfet3 v_rfeo3
79728   -287224.29            0            0            1   0.81944444
Loop time of 47.7857 on 8 procs for 3624 steps with 1466 atoms

  unfix swp

next temp
jump SELF temp_loop

  variable ftemp equal v_temp

  # Electrostatic relaxation-long
  fix  swp fe atom/swap 1 1 7746391 977 ke no types 1 2
  thermo  1000
  thermo_style custom step  pe f_swp[1] f_swp[2] v_rfet3 v_rfeo3
  run  3624
  generated 3 of 3 mixed pair_coeff terms from geometric mixing rule
Step PotEng f_swp[1] f_swp[2] v_rfet3 v_rfeo3
83352   -287212.46            0            0            1   0.81944444
Loop time of 46.9095 on 8 procs for 3624 steps with 1466 atoms

  unfix swp

next temp
jump SELF temp_loop

  variable ftemp equal v_temp

  # Electrostatic relaxation-long
  fix  swp fe atom/swap 1 1 6520128 976 ke no types 1 2
  thermo  1000
  thermo_style custom step  pe f_swp[1] f_swp[2] v_rfet3 v_rfeo3
  run  3624
  generated 3 of 3 mixed pair_coeff terms from geometric mixing rule
Step PotEng f_swp[1] f_swp[2] v_rfet3 v_rfeo3
86976    -287224.1            0            0   0.99411765   0.82175926
Loop time of 47.3702 on 8 procs for 3624 steps with 1466 atoms

  unfix swp

next temp
jump SELF temp_loop

  variable ftemp equal v_temp

  # Electrostatic relaxation-long
  fix  swp fe atom/swap 1 1 4419602 975 ke no types 1 2
  thermo  1000
  thermo_style custom step  pe f_swp[1] f_swp[2] v_rfet3 v_rfeo3
  run  3624
  generated 3 of 3 mixed pair_coeff terms from geometric mixing rule
Step PotEng f_swp[1] f_swp[2] v_rfet3 v_rfeo3
90600   -287216.52            0            0   0.99411765   0.82175926
Loop time of 47.5766 on 8 procs for 3624 steps with 1466 atoms

  unfix swp

next temp
jump SELF temp_loop

  variable ftemp equal v_temp

  # Electrostatic relaxation-long
  fix  swp fe atom/swap 1 1 2199081 974 ke no types 1 2
  thermo  1000
  thermo_style custom step  pe f_swp[1] f_swp[2] v_rfet3 v_rfeo3
  run  3624
  generated 3 of 3 mixed pair_coeff terms from geometric mixing rule
Step PotEng f_swp[1] f_swp[2] v_rfet3 v_rfeo3
94224    -287214.2            0            0            1   0.81944444
Loop time of 47.1111 on 8 procs for 3624 steps with 1466 atoms

  unfix swp

next temp
jump SELF temp_loop

  variable ftemp equal v_temp

  # Electrostatic relaxation-long
  fix  swp fe atom/swap 1 1 6067438 973 ke no types 1 2
  thermo  1000
  thermo_style custom step  pe f_swp[1] f_swp[2] v_rfet3 v_rfeo3
  run  3624
  generated 3 of 3 mixed pair_coeff terms from geometric mixing rule
Step PotEng f_swp[1] f_swp[2] v_rfet3 v_rfeo3
97848   -287215.07            0            0            1   0.81944444
Loop time of 47.0788 on 8 procs for 3624 steps with 1466 atoms

  unfix swp

next temp
jump SELF temp_loop

  variable ftemp equal v_temp

  # Electrostatic relaxation-long
  fix  swp fe atom/swap 1 1 3316115 972 ke no types 1 2
  thermo  1000
  thermo_style custom step  pe f_swp[1] f_swp[2] v_rfet3 v_rfeo3
  run  3624
  generated 3 of 3 mixed pair_coeff terms from geometric mixing rule
Step PotEng f_swp[1] f_swp[2] v_rfet3 v_rfeo3
101472   -287223.48            0            0            1   0.81944444
Loop time of 47.6606 on 8 procs for 3624 steps with 1466 atoms

  unfix swp

next temp
jump SELF temp_loop

  variable ftemp equal v_temp

  # Electrostatic relaxation-long
  fix  swp fe atom/swap 1 1 9343451 971 ke no types 1 2
  thermo  1000
  thermo_style custom step  pe f_swp[1] f_swp[2] v_rfet3 v_rfeo3
  run  3624
  generated 3 of 3 mixed pair_coeff terms from geometric mixing rule
Step PotEng f_swp[1] f_swp[2] v_rfet3 v_rfeo3
105096   -287227.38            0            0            1   0.81944444
Loop time of 46.5987 on 8 procs for 3624 steps with 1466 atoms

  unfix swp

next temp
jump SELF temp_loop

  variable ftemp equal v_temp

  # Electrostatic relaxation-long
  fix  swp fe atom/swap 1 1 9813187 970 ke no types 1 2
  thermo  1000
  thermo_style custom step  pe f_swp[1] f_swp[2] v_rfet3 v_rfeo3
  run  3624
  generated 3 of 3 mixed pair_coeff terms from geometric mixing rule
Step PotEng f_swp[1] f_swp[2] v_rfet3 v_rfeo3
108720   -287223.77            0            0            1   0.81944444
Loop time of 46.3195 on 8 procs for 3624 steps with 1466 atoms

  unfix swp

next temp
jump SELF temp_loop

  variable ftemp equal v_temp

  # Electrostatic relaxation-long
  fix  swp fe atom/swap 1 1 3669492 969 ke no types 1 2
  thermo  1000
  thermo_style custom step  pe f_swp[1] f_swp[2] v_rfet3 v_rfeo3
  run  3624
  generated 3 of 3 mixed pair_coeff terms from geometric mixing rule
Step PotEng f_swp[1] f_swp[2] v_rfet3 v_rfeo3
112344   -287220.53            0            0            1   0.81944444
Loop time of 54.3981 on 8 procs for 3624 steps with 1466 atoms

  unfix swp

next temp
jump SELF temp_loop

  variable ftemp equal v_temp

  # Electrostatic relaxation-long
  fix  swp fe atom/swap 1 1 4337234 968 ke no types 1 2
  thermo  1000
  thermo_style custom step  pe f_swp[1] f_swp[2] v_rfet3 v_rfeo3
  run  3624
  generated 3 of 3 mixed pair_coeff terms from geometric mixing rule
Step PotEng f_swp[1] f_swp[2] v_rfet3 v_rfeo3
115968   -287206.74            0            0            1   0.81944444
Loop time of 51.0836 on 8 procs for 3624 steps with 1466 atoms

  unfix swp

next temp
jump SELF temp_loop

  variable ftemp equal v_temp

  # Electrostatic relaxation-long
  fix  swp fe atom/swap 1 1 8737738 967 ke no types 1 2
  thermo  1000
  thermo_style custom step  pe f_swp[1] f_swp[2] v_rfet3 v_rfeo3
  run  3624
  generated 3 of 3 mixed pair_coeff terms from geometric mixing rule
Step PotEng f_swp[1] f_swp[2] v_rfet3 v_rfeo3
119592   -287210.01            0            0            1   0.81944444
Loop time of 47.9391 on 8 procs for 3624 steps with 1466 atoms

  unfix swp

next temp
jump SELF temp_loop

  variable ftemp equal v_temp

  # Electrostatic relaxation-long
  fix  swp fe atom/swap 1 1 9296387 966 ke no types 1 2
  thermo  1000
  thermo_style custom step  pe f_swp[1] f_swp[2] v_rfet3 v_rfeo3
  run  3624
  generated 3 of 3 mixed pair_coeff terms from geometric mixing rule
Step PotEng f_swp[1] f_swp[2] v_rfet3 v_rfeo3
123216   -287222.45            0            0            1   0.81944444
Loop time of 46.7126 on 8 procs for 3624 steps with 1466 atoms

  unfix swp

next temp
jump SELF temp_loop

  variable ftemp equal v_temp

  # Electrostatic relaxation-long
  fix  swp fe atom/swap 1 1 9088774 965 ke no types 1 2
  thermo  1000
  thermo_style custom step  pe f_swp[1] f_swp[2] v_rfet3 v_rfeo3
  run  3624
  generated 3 of 3 mixed pair_coeff terms from geometric mixing rule
Step PotEng f_swp[1] f_swp[2] v_rfet3 v_rfeo3
126840   -287229.95            0            0            1   0.81944444
Loop time of 46.2512 on 8 procs for 3624 steps with 1466 atoms

  unfix swp

next temp
jump SELF temp_loop

  variable ftemp equal v_temp

  # Electrostatic relaxation-long
  fix  swp fe atom/swap 1 1 5675456 964 ke no types 1 2
  thermo  1000
  thermo_style custom step  pe f_swp[1] f_swp[2] v_rfet3 v_rfeo3
  run  3624
  generated 3 of 3 mixed pair_coeff terms from geometric mixing rule
Step PotEng f_swp[1] f_swp[2] v_rfet3 v_rfeo3
130464   -287219.61            0            0            1   0.81944444
Loop time of 46.5621 on 8 procs for 3624 steps with 1466 atoms

  unfix swp

next temp
jump SELF temp_loop

  variable ftemp equal v_temp

  # Electrostatic relaxation-long
  fix  swp fe atom/swap 1 1 129625 963 ke no types 1 2
  thermo  1000
  thermo_style custom step  pe f_swp[1] f_swp[2] v_rfet3 v_rfeo3
  run  3624
  generated 3 of 3 mixed pair_coeff terms from geometric mixing rule
Step PotEng f_swp[1] f_swp[2] v_rfet3 v_rfeo3
134088   -287219.78            0            0            1   0.81944444
Loop time of 46.3419 on 8 procs for 3624 steps with 1466 atoms

  unfix swp

next temp
jump SELF temp_loop

  variable ftemp equal v_temp

  # Electrostatic relaxation-long
  fix  swp fe atom/swap 1 1 6411397 962 ke no types 1 2
  thermo  1000
  thermo_style custom step  pe f_swp[1] f_swp[2] v_rfet3 v_rfeo3
  run  3624
  generated 3 of 3 mixed pair_coeff terms from geometric mixing rule
Step PotEng f_swp[1] f_swp[2] v_rfet3 v_rfeo3
137712   -287213.43            0            0            1   0.81944444
Loop time of 46.4355 on 8 procs for 3624 steps with 1466 atoms

  unfix swp

next temp
jump SELF temp_loop

  variable ftemp equal v_temp

  # Electrostatic relaxation-long
  fix  swp fe atom/swap 1 1 3177600 961 ke no types 1 2
  thermo  1000
  thermo_style custom step  pe f_swp[1] f_swp[2] v_rfet3 v_rfeo3
  run  3624
  generated 3 of 3 mixed pair_coeff terms from geometric mixing rule
Loop time of 47.0816 on 8 procs for 3624 steps with 1466 atoms

  unfix swp

next temp
jump SELF temp_loop

  variable ftemp equal v_temp

  # Electrostatic relaxation-long
  fix  swp fe atom/swap 1 1 8668979 960 ke no types 1 2
  thermo  1000
  thermo_style custom step  pe f_swp[1] f_swp[2] v_rfet3 v_rfeo3
  run  3624
  generated 3 of 3 mixed pair_coeff terms from geometric mixing rule
Loop time of 48.4271 on 8 procs for 3624 steps with 1466 atoms

  unfix swp

next temp
jump SELF temp_loop

  variable ftemp equal v_temp

  # Electrostatic relaxation-long
  fix  swp fe atom/swap 1 1 3076370 959 ke no types 1 2
  thermo  1000
  thermo_style custom step  pe f_swp[1] f_swp[2] v_rfet3 v_rfeo3
  run  3624
  generated 3 of 3 mixed pair_coeff terms from geometric mixing rule
Loop time of 46.8927 on 8 procs for 3624 steps with 1466 atoms

  unfix swp

next temp
jump SELF temp_loop

  variable ftemp equal v_temp

  # Electrostatic relaxation-long
  fix  swp fe atom/swap 1 1 7996883 958 ke no types 1 2
  thermo  1000
  thermo_style custom step  pe f_swp[1] f_swp[2] v_rfet3 v_rfeo3
  run  3624
  generated 3 of 3 mixed pair_coeff terms from geometric mixing rule
Loop time of 47.6187 on 8 procs for 3624 steps with 1466 atoms

  unfix swp

next temp
jump SELF temp_loop

  variable ftemp equal v_temp

  # Electrostatic relaxation-long
  fix  swp fe atom/swap 1 1 6920765 957 ke no types 1 2
  thermo  1000
  thermo_style custom step  pe f_swp[1] f_swp[2] v_rfet3 v_rfeo3
  run  3624
  generated 3 of 3 mixed pair_coeff terms from geometric mixing rule
Loop time of 47.1312 on 8 procs for 3624 steps with 1466 atoms

  unfix swp

next temp
jump SELF temp_loop

  variable ftemp equal v_temp

  # Electrostatic relaxation-long
  fix  swp fe atom/swap 1 1 4893935 956 ke no types 1 2
  thermo  1000
  thermo_style custom step  pe f_swp[1] f_swp[2] v_rfet3 v_rfeo3
  run  3624
  generated 3 of 3 mixed pair_coeff terms from geometric mixing rule
Loop time of 47.8427 on 8 procs for 3624 steps with 1466 atoms

  unfix swp

next temp
jump SELF temp_loop

  variable ftemp equal v_temp

  # Electrostatic relaxation-long
  fix  swp fe atom/swap 1 1 9244496 955 ke no types 1 2
  thermo  1000
  thermo_style custom step  pe f_swp[1] f_swp[2] v_rfet3 v_rfeo3
  run  3624
  generated 3 of 3 mixed pair_coeff terms from geometric mixing rule
Loop time of 49.8853 on 8 procs for 3624 steps with 1466 atoms

  unfix swp

next temp
jump SELF temp_loop

  variable ftemp equal v_temp

  # Electrostatic relaxation-long
  fix  swp fe atom/swap 1 1 5825701 954 ke no types 1 2
  thermo  1000
  thermo_style custom step  pe f_swp[1] f_swp[2] v_rfet3 v_rfeo3
  run  3624
  generated 3 of 3 mixed pair_coeff terms from geometric mixing rule
Loop time of 48.6863 on 8 procs for 3624 steps with 1466 atoms

  unfix swp

next temp
jump SELF temp_loop

  variable ftemp equal v_temp

  # Electrostatic relaxation-long
  fix  swp fe atom/swap 1 1 2375897 953 ke no types 1 2
  thermo  1000
  thermo_style custom step  pe f_swp[1] f_swp[2] v_rfet3 v_rfeo3
  run  3624
  generated 3 of 3 mixed pair_coeff terms from geometric mixing rule
Loop time of 52.2762 on 8 procs for 3624 steps with 1466 atoms

  unfix swp

next temp
jump SELF temp_loop

  variable ftemp equal v_temp

  # Electrostatic relaxation-long
  fix  swp fe atom/swap 1 1 658845 952 ke no types 1 2
  thermo  1000
  thermo_style custom step  pe f_swp[1] f_swp[2] v_rfet3 v_rfeo3
  run  3624
  generated 3 of 3 mixed pair_coeff terms from geometric mixing rule
Loop time of 48.0139 on 8 procs for 3624 steps with 1466 atoms

  unfix swp

next temp
jump SELF temp_loop

  variable ftemp equal v_temp

  # Electrostatic relaxation-long
  fix  swp fe atom/swap 1 1 6228661 951 ke no types 1 2
  thermo  1000
  thermo_style custom step  pe f_swp[1] f_swp[2] v_rfet3 v_rfeo3
  run  3624
  generated 3 of 3 mixed pair_coeff terms from geometric mixing rule
Loop time of 53.0423 on 8 procs for 3624 steps with 1466 atoms

  unfix swp

next temp
jump SELF temp_loop

  variable ftemp equal v_temp

  # Electrostatic relaxation-long
  fix  swp fe atom/swap 1 1 7694381 950 ke no types 1 2
  thermo  1000
  thermo_style custom step  pe f_swp[1] f_swp[2] v_rfet3 v_rfeo3
  run  3624
  generated 3 of 3 mixed pair_coeff terms from geometric mixing rule
Loop time of 50.5081 on 8 procs for 3624 steps with 1466 atoms

  unfix swp

next temp
jump SELF temp_loop

  variable ftemp equal v_temp

  # Electrostatic relaxation-long
  fix  swp fe atom/swap 1 1 3903945 949 ke no types 1 2
  thermo  1000
  thermo_style custom step  pe f_swp[1] f_swp[2] v_rfet3 v_rfeo3
  run  3624
  generated 3 of 3 mixed pair_coeff terms from geometric mixing rule
Loop time of 48.1921 on 8 procs for 3624 steps with 1466 atoms

  unfix swp

next temp
jump SELF temp_loop

  variable ftemp equal v_temp

  # Electrostatic relaxation-long
  fix  swp fe atom/swap 1 1 9454489 948 ke no types 1 2
  thermo  1000
  thermo_style custom step  pe f_swp[1] f_swp[2] v_rfet3 v_rfeo3
  run  3624
  generated 3 of 3 mixed pair_coeff terms from geometric mixing rule
Loop time of 48.7652 on 8 procs for 3624 steps with 1466 atoms

  unfix swp

next temp
jump SELF temp_loop

  variable ftemp equal v_temp

  # Electrostatic relaxation-long
  fix  swp fe atom/swap 1 1 5910174 947 ke no types 1 2
  thermo  1000
  thermo_style custom step  pe f_swp[1] f_swp[2] v_rfet3 v_rfeo3
  run  3624
  generated 3 of 3 mixed pair_coeff terms from geometric mixing rule
Loop time of 50.5048 on 8 procs for 3624 steps with 1466 atoms

  unfix swp

next temp
jump SELF temp_loop

  variable ftemp equal v_temp

  # Electrostatic relaxation-long
  fix  swp fe atom/swap 1 1 1067984 946 ke no types 1 2
  thermo  1000
  thermo_style custom step  pe f_swp[1] f_swp[2] v_rfet3 v_rfeo3
  run  3624
  generated 3 of 3 mixed pair_coeff terms from geometric mixing rule
Loop time of 47.5506 on 8 procs for 3624 steps with 1466 atoms

  unfix swp

next temp
jump SELF temp_loop

  variable ftemp equal v_temp

  # Electrostatic relaxation-long
  fix  swp fe atom/swap 1 1 2893895 945 ke no types 1 2
  thermo  1000
  thermo_style custom step  pe f_swp[1] f_swp[2] v_rfet3 v_rfeo3
  run  3624
  generated 3 of 3 mixed pair_coeff terms from geometric mixing rule
Loop time of 47.6065 on 8 procs for 3624 steps with 1466 atoms

  unfix swp

next temp
jump SELF temp_loop

  variable ftemp equal v_temp

  # Electrostatic relaxation-long
  fix  swp fe atom/swap 1 1 8575820 944 ke no types 1 2
  thermo  1000
  thermo_style custom step  pe f_swp[1] f_swp[2] v_rfet3 v_rfeo3
  run  3624
  generated 3 of 3 mixed pair_coeff terms from geometric mixing rule
Loop time of 47.7452 on 8 procs for 3624 steps with 1466 atoms

  unfix swp

next temp
jump SELF temp_loop

  variable ftemp equal v_temp

  # Electrostatic relaxation-long
  fix  swp fe atom/swap 1 1 8930244 943 ke no types 1 2
  thermo  1000
  thermo_style custom step  pe f_swp[1] f_swp[2] v_rfet3 v_rfeo3
  run  3624
  generated 3 of 3 mixed pair_coeff terms from geometric mixing rule
Loop time of 49.5052 on 8 procs for 3624 steps with 1466 atoms

  unfix swp

next temp
jump SELF temp_loop

  variable ftemp equal v_temp

  # Electrostatic relaxation-long
  fix  swp fe atom/swap 1 1 2582118 942 ke no types 1 2
  thermo  1000
  thermo_style custom step  pe f_swp[1] f_swp[2] v_rfet3 v_rfeo3
  run  3624
  generated 3 of 3 mixed pair_coeff terms from geometric mixing rule
Loop time of 48.6052 on 8 procs for 3624 steps with 1466 atoms

  unfix swp

next temp
jump SELF temp_loop

  variable ftemp equal v_temp

  # Electrostatic relaxation-long
  fix  swp fe atom/swap 1 1 6127347 941 ke no types 1 2
  thermo  1000
  thermo_style custom step  pe f_swp[1] f_swp[2] v_rfet3 v_rfeo3
  run  3624
  generated 3 of 3 mixed pair_coeff terms from geometric mixing rule
Loop time of 48.8663 on 8 procs for 3624 steps with 1466 atoms

  unfix swp

next temp
jump SELF temp_loop

  variable ftemp equal v_temp

  # Electrostatic relaxation-long
  fix  swp fe atom/swap 1 1 3743981 940 ke no types 1 2
  thermo  1000
  thermo_style custom step  pe f_swp[1] f_swp[2] v_rfet3 v_rfeo3
  run  3624
  generated 3 of 3 mixed pair_coeff terms from geometric mixing rule
Loop time of 48.9742 on 8 procs for 3624 steps with 1466 atoms

  unfix swp

next temp
jump SELF temp_loop

  variable ftemp equal v_temp

  # Electrostatic relaxation-long
  fix  swp fe atom/swap 1 1 3273207 939 ke no types 1 2
  thermo  1000
  thermo_style custom step  pe f_swp[1] f_swp[2] v_rfet3 v_rfeo3
  run  3624
  generated 3 of 3 mixed pair_coeff terms from geometric mixing rule
Loop time of 46.4485 on 8 procs for 3624 steps with 1466 atoms

  unfix swp

next temp
jump SELF temp_loop

  variable ftemp equal v_temp

  # Electrostatic relaxation-long
  fix  swp fe atom/swap 1 1 240566 938 ke no types 1 2
  thermo  1000
  thermo_style custom step  pe f_swp[1] f_swp[2] v_rfet3 v_rfeo3
  run  3624
  generated 3 of 3 mixed pair_coeff terms from geometric mixing rule
Loop time of 48.9685 on 8 procs for 3624 steps with 1466 atoms

  unfix swp

next temp
jump SELF temp_loop

  variable ftemp equal v_temp

  # Electrostatic relaxation-long
  fix  swp fe atom/swap 1 1 7452945 937 ke no types 1 2
  thermo  1000
  thermo_style custom step  pe f_swp[1] f_swp[2] v_rfet3 v_rfeo3
  run  3624
  generated 3 of 3 mixed pair_coeff terms from geometric mixing rule
Loop time of 48.3983 on 8 procs for 3624 steps with 1466 atoms

  unfix swp

next temp
jump SELF temp_loop

  variable ftemp equal v_temp

  # Electrostatic relaxation-long
  fix  swp fe atom/swap 1 1 9853395 936 ke no types 1 2
  thermo  1000
  thermo_style custom step  pe f_swp[1] f_swp[2] v_rfet3 v_rfeo3
  run  3624
  generated 3 of 3 mixed pair_coeff terms from geometric mixing rule
Loop time of 48.2047 on 8 procs for 3624 steps with 1466 atoms

  unfix swp

next temp
jump SELF temp_loop

  variable ftemp equal v_temp

  # Electrostatic relaxation-long
  fix  swp fe atom/swap 1 1 8452553 935 ke no types 1 2
  thermo  1000
  thermo_style custom step  pe f_swp[1] f_swp[2] v_rfet3 v_rfeo3
  run  3624
  generated 3 of 3 mixed pair_coeff terms from geometric mixing rule
Loop time of 48.4317 on 8 procs for 3624 steps with 1466 atoms

  unfix swp

next temp
jump SELF temp_loop

  variable ftemp equal v_temp

  # Electrostatic relaxation-long
  fix  swp fe atom/swap 1 1 8678619 934 ke no types 1 2
  thermo  1000
  thermo_style custom step  pe f_swp[1] f_swp[2] v_rfet3 v_rfeo3
  run  3624
  generated 3 of 3 mixed pair_coeff terms from geometric mixing rule
Loop time of 457.056 on 8 procs for 3624 steps with 1466 atoms
